/*--------------------------------*- C++ -*----------------------------------*\
| =========                 |                                                 |
| \\      /  F ield         | OpenFOAM: The Open Source CFD Toolbox           |
|  \\    /   O peration     | Version:  2.4.0                                 |
|   \\  /    A nd           | Web:      www.OpenFOAM.org                      |
|    \\/     M anipulation  |                                                 |
\*---------------------------------------------------------------------------*/
FoamFile
{
    version     2.0;
    format      ascii;
    class       dictionary;
    location    "system";
    object      fvSchemes;
}
// * * * * * * * * * * * * * * * * * * * * * * * * * * * * * * * * * * * * * //

ddtSchemes
{
    default         Euler;
}

gradSchemes
{
    default         Gauss linear;
}

divSchemes
{
    div(phi,alpha)  Gauss vanLeer;
    //div(phirb,alpha) Gauss linear;
    div(phirb,alpha) Gauss interfaceCompression 1.0;

    div(rhoPhi,U)  Gauss upwind;
    div(phi,thermo:rho.water) Gauss upwind;
    div(phi,thermo:rho.air) Gauss upwind;
    div(rhoPhi,T)  Gauss upwind;
    div(rhoPhi,K)  Gauss upwind;
    div(phi,p)      Gauss upwind;
    div(phi,k)      Gauss upwind;
    div(phi,inkMap) Gauss upwind;

    div((muEff*dev2(T(grad(U))))) Gauss linear;

    div(((rho*nuEff)*dev2(T(grad(U))))) Gauss linear;

    div(phid1,p_rgh)      Gauss upwind;
    div(phid2,p_rgh)      Gauss linear;
}

laplacianSchemes
{
    default         Gauss linear uncorrected;
}

interpolationSchemes
{
    default         linear;
}

snGradSchemes
{
    default         uncorrected;
}

fluxRequired
{
    default         no;
    p_rgh;
    pcorr;
}


// ************************************************************************* //
