/*--------------------------------*- C++ -*----------------------------------*\
| =========                 |                                                 |
| \\      /  F ield         | OpenFOAM: The Open Source CFD Toolbox           |
|  \\    /   O peration     | Version:  4.1                                   |
|   \\  /    A nd           | Web:      www.OpenFOAM.org                      |
|    \\/     M anipulation  |                                                 |
\*---------------------------------------------------------------------------*/
FoamFile
{
    version     2.0;
    format      ascii;
    class       vectorField;
    object      kinematicCloudPositions;
}
// * * * * * * * * * * * * * * * * * * * * * * * * * * * * * * * * * * * * * //


(
(1e-05 -0.00141 0)
(3e-05 -0.00141 0)
(5e-05 -0.00141 0)
(7e-05 -0.00141 0)
(9e-05 -0.00141 0)
(0.00011 -0.00141 0)
(0.00013 -0.00141 0)
(0.00015 -0.00141 0)
(0.00017 -0.00141 0)
(0.00019 -0.00141 0)
(0.00021 -0.00141 0)
(1e-05 -0.00139 0)
(3e-05 -0.00139 0)
(5e-05 -0.00139 0)
(7e-05 -0.00139 0)
(9e-05 -0.00139 0)
(0.00011 -0.00139 0)
(0.00013 -0.00139 0)
(0.00015 -0.00139 0)
(0.00017 -0.00139 0)
(0.00019 -0.00139 0)
(0.00021 -0.00139 0)
(1e-05 -0.00137 0)
(3e-05 -0.00137 0)
(5e-05 -0.00137 0)
(7e-05 -0.00137 0)
(9e-05 -0.00137 0)
(0.00011 -0.00137 0)
(0.00013 -0.00137 0)
(0.00015 -0.00137 0)
(0.00017 -0.00137 0)
(0.00019 -0.00137 0)
(0.00021 -0.00137 0)
(1e-05 -0.00135 0)
(3e-05 -0.00135 0)
(5e-05 -0.00135 0)
(7e-05 -0.00135 0)
(9e-05 -0.00135 0)
(0.00011 -0.00135 0)
(0.00013 -0.00135 0)
(0.00015 -0.00135 0)
(0.00017 -0.00135 0)
(0.00019 -0.00135 0)
(0.00021 -0.00135 0)
(1e-05 -0.00133 0)
(3e-05 -0.00133 0)
(5e-05 -0.00133 0)
(7e-05 -0.00133 0)
(9e-05 -0.00133 0)
(0.00011 -0.00133 0)
(0.00013 -0.00133 0)
(0.00015 -0.00133 0)
(0.00017 -0.00133 0)
(0.00019 -0.00133 0)
(0.00021 -0.00133 0)
(1e-05 -0.00131 0)
(3e-05 -0.00131 0)
(5e-05 -0.00131 0)
(7e-05 -0.00131 0)
(9e-05 -0.00131 0)
(0.00011 -0.00131 0)
(0.00013 -0.00131 0)
(0.00015 -0.00131 0)
(0.00017 -0.00131 0)
(0.00019 -0.00131 0)
(0.00021 -0.00131 0)
(1e-05 -0.00129 0)
(3e-05 -0.00129 0)
(5e-05 -0.00129 0)
(7e-05 -0.00129 0)
(9e-05 -0.00129 0)
(0.00011 -0.00129 0)
(0.00013 -0.00129 0)
(0.00015 -0.00129 0)
(0.00017 -0.00129 0)
(0.00019 -0.00129 0)
(0.00021 -0.00129 0)
(1e-05 -0.00127 0)
(3e-05 -0.00127 0)
(5e-05 -0.00127 0)
(7e-05 -0.00127 0)
(9e-05 -0.00127 0)
(0.00011 -0.00127 0)
(0.00013 -0.00127 0)
(0.00015 -0.00127 0)
(0.00017 -0.00127 0)
(0.00019 -0.00127 0)
(0.00021 -0.00127 0)
(1e-05 -0.00125 0)
(3e-05 -0.00125 0)
(5e-05 -0.00125 0)
(7e-05 -0.00125 0)
(9e-05 -0.00125 0)
(0.00011 -0.00125 0)
(0.00013 -0.00125 0)
(0.00015 -0.00125 0)
(0.00017 -0.00125 0)
(0.00019 -0.00125 0)
(0.00021 -0.00125 0)
(1e-05 -0.00123 0)
(3e-05 -0.00123 0)
(5e-05 -0.00123 0)
(7e-05 -0.00123 0)
(9e-05 -0.00123 0)
(0.00011 -0.00123 0)
(0.00013 -0.00123 0)
(0.00015 -0.00123 0)
(0.00017 -0.00123 0)
(0.00019 -0.00123 0)
(0.00021 -0.00123 0)
(1e-05 -0.00121 0)
(3e-05 -0.00121 0)
(5e-05 -0.00121 0)
(7e-05 -0.00121 0)
(9e-05 -0.00121 0)
(0.00011 -0.00121 0)
(0.00013 -0.00121 0)
(0.00015 -0.00121 0)
(0.00017 -0.00121 0)
(0.00019 -0.00121 0)
(0.00021 -0.00121 0)
(1e-05 -0.00119 0)
(3e-05 -0.00119 0)
(5e-05 -0.00119 0)
(7e-05 -0.00119 0)
(9e-05 -0.00119 0)
(0.00011 -0.00119 0)
(0.00013 -0.00119 0)
(0.00015 -0.00119 0)
(0.00017 -0.00119 0)
(0.00019 -0.00119 0)
(0.00021 -0.00119 0)
(1e-05 -0.00117 0)
(3e-05 -0.00117 0)
(5e-05 -0.00117 0)
(7e-05 -0.00117 0)
(9e-05 -0.00117 0)
(0.00011 -0.00117 0)
(0.00013 -0.00117 0)
(0.00015 -0.00117 0)
(0.00017 -0.00117 0)
(0.00019 -0.00117 0)
(0.00021 -0.00117 0)
(1e-05 -0.00115 0)
(3e-05 -0.00115 0)
(5e-05 -0.00115 0)
(7e-05 -0.00115 0)
(9e-05 -0.00115 0)
(0.00011 -0.00115 0)
(0.00013 -0.00115 0)
(0.00015 -0.00115 0)
(0.00017 -0.00115 0)
(0.00019 -0.00115 0)
(0.00021 -0.00115 0)
(1e-05 -0.00113 0)
(3e-05 -0.00113 0)
(5e-05 -0.00113 0)
(7e-05 -0.00113 0)
(9e-05 -0.00113 0)
(0.00011 -0.00113 0)
(0.00013 -0.00113 0)
(0.00015 -0.00113 0)
(0.00017 -0.00113 0)
(0.00019 -0.00113 0)
(0.00021 -0.00113 0)
(1e-05 -0.00111 0)
(3e-05 -0.00111 0)
(5e-05 -0.00111 0)
(7e-05 -0.00111 0)
(9e-05 -0.00111 0)
(0.00011 -0.00111 0)
(0.00013 -0.00111 0)
(0.00015 -0.00111 0)
(0.00017 -0.00111 0)
(0.00019 -0.00111 0)
(0.00021 -0.00111 0)
(1e-05 -0.00109 0)
(3e-05 -0.00109 0)
(5e-05 -0.00109 0)
(7e-05 -0.00109 0)
(9e-05 -0.00109 0)
(0.00011 -0.00109 0)
(0.00013 -0.00109 0)
(0.00015 -0.00109 0)
(0.00017 -0.00109 0)
(0.00019 -0.00109 0)
(0.00021 -0.00109 0)
(1e-05 -0.00107 0)
(3e-05 -0.00107 0)
(5e-05 -0.00107 0)
(7e-05 -0.00107 0)
(9e-05 -0.00107 0)
(0.00011 -0.00107 0)
(0.00013 -0.00107 0)
(0.00015 -0.00107 0)
(0.00017 -0.00107 0)
(0.00019 -0.00107 0)
(0.00021 -0.00107 0)
(1e-05 -0.00105 0)
(3e-05 -0.00105 0)
(5e-05 -0.00105 0)
(7e-05 -0.00105 0)
(9e-05 -0.00105 0)
(0.00011 -0.00105 0)
(0.00013 -0.00105 0)
(0.00015 -0.00105 0)
(0.00017 -0.00105 0)
(0.00019 -0.00105 0)
(0.00021 -0.00105 0)
(1e-05 -0.00103 0)
(3e-05 -0.00103 0)
(5e-05 -0.00103 0)
(7e-05 -0.00103 0)
(9e-05 -0.00103 0)
(0.00011 -0.00103 0)
(0.00013 -0.00103 0)
(0.00015 -0.00103 0)
(0.00017 -0.00103 0)
(0.00019 -0.00103 0)
(0.00021 -0.00103 0)
(1e-05 -0.00101 0)
(3e-05 -0.00101 0)
(5e-05 -0.00101 0)
(7e-05 -0.00101 0)
(9e-05 -0.00101 0)
(0.00011 -0.00101 0)
(0.00013 -0.00101 0)
(0.00015 -0.00101 0)
(0.00017 -0.00101 0)
(0.00019 -0.00101 0)
(0.00021 -0.00101 0)
(1e-05 -0.00099 0)
(2.5e-05 -0.00099 0)
(4e-05 -0.00099 0)
(1e-05 -0.00097 0)
(2.5e-05 -0.00097 0)
(4e-05 -0.00097 0)
(1e-05 -0.00095 0)
(2.5e-05 -0.00095 0)
(4e-05 -0.00095 0)
(1e-05 -0.00093 0)
(2.5e-05 -0.00093 0)
(4e-05 -0.00093 0)
(1e-05 -0.00091 0)
(2.5e-05 -0.00091 0)
(4e-05 -0.00091 0)
(1e-05 -0.00089 0)
(2.5e-05 -0.00089 0)
(4e-05 -0.00089 0)
(1e-05 -0.00087 0)
(2.5e-05 -0.00087 0)
(4e-05 -0.00087 0)
(1e-05 -0.00085 0)
(2.5e-05 -0.00085 0)
(4e-05 -0.00085 0)
(1e-05 -0.00083 0)
(2.5e-05 -0.00083 0)
(4e-05 -0.00083 0)
(1e-05 -0.00081 0)
(2.5e-05 -0.00081 0)
(4e-05 -0.00081 0)
(1e-05 -0.00079 0)
(2.5e-05 -0.00079 0)
(4e-05 -0.00079 0)
(1e-05 -0.00077 0)
(2.5e-05 -0.00077 0)
(4e-05 -0.00077 0)
(1e-05 -0.00075 0)
(2.5e-05 -0.00075 0)
(4e-05 -0.00075 0)
(1e-05 -0.00073 0)
(2.5e-05 -0.00073 0)
(4e-05 -0.00073 0)
(1e-05 -0.00071 0)
(2.5e-05 -0.00071 0)
(4e-05 -0.00071 0)
(1e-05 -0.00069 0)
(2.5e-05 -0.00069 0)
(4e-05 -0.00069 0)
(1e-05 -0.00067 0)
(2.5e-05 -0.00067 0)
(4e-05 -0.00067 0)
(1e-05 -0.00065 0)
(2.5e-05 -0.00065 0)
(4e-05 -0.00065 0)
(1e-05 -0.00063 0)
(2.5e-05 -0.00063 0)
(4e-05 -0.00063 0)
(1e-05 -0.00061 0)
(2.5e-05 -0.00061 0)
(4e-05 -0.00061 0)
(1e-05 -0.00059 0)
(2.5e-05 -0.00059 0)
(4e-05 -0.00059 0)
(1e-05 -0.00057 0)
(2.5e-05 -0.00057 0)
(4e-05 -0.00057 0)
(1e-05 -0.00055 0)
(2.5e-05 -0.00055 0)
(4e-05 -0.00055 0)
(1e-05 -0.00053 0)
(2.5e-05 -0.00053 0)
(4e-05 -0.00053 0)
(1e-05 -0.00051 0)
(2.5e-05 -0.00051 0)
(4e-05 -0.00051 0)
(1e-05 -0.00049 0)
(2.5e-05 -0.00049 0)
(4e-05 -0.00049 0)
(1e-05 -0.00047 0)
(2.5e-05 -0.00047 0)
(4e-05 -0.00047 0)
(1e-05 -0.00045 0)
(2.5e-05 -0.00045 0)
(4e-05 -0.00045 0)
(1e-05 -0.00043 0)
(2.5e-05 -0.00043 0)
(4e-05 -0.00043 0)
(1e-05 -0.00041 0)
(2.5e-05 -0.00041 0)
(4e-05 -0.00041 0)
(1e-05 -0.00039 0)
(2.5e-05 -0.00039 0)
(4e-05 -0.00039 0)
(1e-05 -0.00037 0)
(2.5e-05 -0.00037 0)
(4e-05 -0.00037 0)
(1e-05 -0.00035 0)
(2.5e-05 -0.00035 0)
(4e-05 -0.00035 0)
(1e-05 -0.00033 0)
(2.5e-05 -0.00033 0)
(4e-05 -0.00033 0)
(1e-05 -0.00031 0)
(2.5e-05 -0.00031 0)
(4e-05 -0.00031 0)
(1e-05 -0.00029 0)
(2.5e-05 -0.00029 0)
(4e-05 -0.00029 0)
(1e-05 -0.00027 0)
(2.5e-05 -0.00027 0)
(4e-05 -0.00027 0)
(1e-05 -0.00025 0)
(2.5e-05 -0.00025 0)
(4e-05 -0.00025 0)
(1e-05 -0.00023 0)
(2.5e-05 -0.00023 0)
(4e-05 -0.00023 0)
(1e-05 -0.00021 0)
(2.5e-05 -0.00021 0)
(4e-05 -0.00021 0)
(1e-05 -0.00019 0)
(2.5e-05 -0.00019 0)
(4e-05 -0.00019 0)
(1e-05 -0.00017 0)
(2.5e-05 -0.00017 0)
(4e-05 -0.00017 0)
(1e-05 -0.00015 0)
(2.5e-05 -0.00015 0)
(4e-05 -0.00015 0)
(1e-05 -0.00013 0)
(2.5e-05 -0.00013 0)
(4e-05 -0.00013 0)
(1e-05 -0.00011 0)
(2.5e-05 -0.00011 0)
(4e-05 -0.00011 0)
(1e-05 -9e-05 0)
(2.5e-05 -9e-05 0)
(4e-05 -9e-05 0)
(1e-05 -7e-05 0)
(2.5e-05 -7e-05 0)
(4e-05 -7e-05 0)
(1e-05 -5e-05 0)
(2.5e-05 -5e-05 0)
(4e-05 -5e-05 0)
(1e-05 -3e-05 0)
(2.5e-05 -3e-05 0)
(4e-05 -3e-05 0)
(1e-05 -1e-05 0)
(2.5e-05 -1e-05 0)
(4e-05 -1e-05 0)
(1e-05 1e-05 0)
(3e-05 1e-05 0)
(5e-05 1e-05 0)
(7e-05 1e-05 0)
(9e-05 1e-05 0)
(0.00011 1e-05 0)
(0.00013 1e-05 0)
(0.00015 1e-05 0)
(0.00017 1e-05 0)
(0.00019 1e-05 0)
(0.00021 1e-05 0)
(0.00023 1e-05 0)
(0.00025 1e-05 0)
(0.00027 1e-05 0)
(0.00029 1e-05 0)
(0.00031 1e-05 0)
(0.00033 1e-05 0)
(0.00035 1e-05 0)
(0.00037 1e-05 0)
(0.00039 1e-05 0)
(0.00041 1e-05 0)
(1e-05 3e-05 0)
(3e-05 3e-05 0)
(5e-05 3e-05 0)
(7e-05 3e-05 0)
(9e-05 3e-05 0)
(0.00011 3e-05 0)
(0.00013 3e-05 0)
(0.00015 3e-05 0)
(0.00017 3e-05 0)
(0.00019 3e-05 0)
(0.00021 3e-05 0)
(0.00023 3e-05 0)
(0.00025 3e-05 0)
(0.00027 3e-05 0)
(0.00029 3e-05 0)
(0.00031 3e-05 0)
(0.00033 3e-05 0)
(0.00035 3e-05 0)
(0.00037 3e-05 0)
(0.00039 3e-05 0)
(0.00041 3e-05 0)
(1e-05 5e-05 0)
(3e-05 5e-05 0)
(5e-05 5e-05 0)
(7e-05 5e-05 0)
(9e-05 5e-05 0)
(0.00011 5e-05 0)
(0.00013 5e-05 0)
(0.00015 5e-05 0)
(0.00017 5e-05 0)
(0.00019 5e-05 0)
(0.00021 5e-05 0)
(0.00023 5e-05 0)
(0.00025 5e-05 0)
(0.00027 5e-05 0)
(0.00029 5e-05 0)
(0.00031 5e-05 0)
(0.00033 5e-05 0)
(0.00035 5e-05 0)
(0.00037 5e-05 0)
(0.00039 5e-05 0)
(0.00041 5e-05 0)
(1e-05 7e-05 0)
(3e-05 7e-05 0)
(5e-05 7e-05 0)
(7e-05 7e-05 0)
(9e-05 7e-05 0)
(0.00011 7e-05 0)
(0.00013 7e-05 0)
(0.00015 7e-05 0)
(0.00017 7e-05 0)
(0.00019 7e-05 0)
(0.00021 7e-05 0)
(0.00023 7e-05 0)
(0.00025 7e-05 0)
(0.00027 7e-05 0)
(0.00029 7e-05 0)
(0.00031 7e-05 0)
(0.00033 7e-05 0)
(0.00035 7e-05 0)
(0.00037 7e-05 0)
(0.00039 7e-05 0)
(0.00041 7e-05 0)
(1e-05 9e-05 0)
(3e-05 9e-05 0)
(5e-05 9e-05 0)
(7e-05 9e-05 0)
(9e-05 9e-05 0)
(0.00011 9e-05 0)
(0.00013 9e-05 0)
(0.00015 9e-05 0)
(0.00017 9e-05 0)
(0.00019 9e-05 0)
(0.00021 9e-05 0)
(0.00023 9e-05 0)
(0.00025 9e-05 0)
(0.00027 9e-05 0)
(0.00029 9e-05 0)
(0.00031 9e-05 0)
(0.00033 9e-05 0)
(0.00035 9e-05 0)
(0.00037 9e-05 0)
(0.00039 9e-05 0)
(0.00041 9e-05 0)
(1e-05 0.00011 0)
(3e-05 0.00011 0)
(5e-05 0.00011 0)
(7e-05 0.00011 0)
(9e-05 0.00011 0)
(0.00011 0.00011 0)
(0.00013 0.00011 0)
(0.00015 0.00011 0)
(0.00017 0.00011 0)
(0.00019 0.00011 0)
(0.00021 0.00011 0)
(0.00023 0.00011 0)
(0.00025 0.00011 0)
(0.00027 0.00011 0)
(0.00029 0.00011 0)
(0.00031 0.00011 0)
(0.00033 0.00011 0)
(0.00035 0.00011 0)
(0.00037 0.00011 0)
(0.00039 0.00011 0)
(0.00041 0.00011 0)
(1e-05 0.00013 0)
(3e-05 0.00013 0)
(5e-05 0.00013 0)
(7e-05 0.00013 0)
(9e-05 0.00013 0)
(0.00011 0.00013 0)
(0.00013 0.00013 0)
(0.00015 0.00013 0)
(0.00017 0.00013 0)
(0.00019 0.00013 0)
(0.00021 0.00013 0)
(0.00023 0.00013 0)
(0.00025 0.00013 0)
(0.00027 0.00013 0)
(0.00029 0.00013 0)
(0.00031 0.00013 0)
(0.00033 0.00013 0)
(0.00035 0.00013 0)
(0.00037 0.00013 0)
(0.00039 0.00013 0)
(0.00041 0.00013 0)
(1e-05 0.00015 0)
(3e-05 0.00015 0)
(5e-05 0.00015 0)
(7e-05 0.00015 0)
(9e-05 0.00015 0)
(0.00011 0.00015 0)
(0.00013 0.00015 0)
(0.00015 0.00015 0)
(0.00017 0.00015 0)
(0.00019 0.00015 0)
(0.00021 0.00015 0)
(0.00023 0.00015 0)
(0.00025 0.00015 0)
(0.00027 0.00015 0)
(0.00029 0.00015 0)
(0.00031 0.00015 0)
(0.00033 0.00015 0)
(0.00035 0.00015 0)
(0.00037 0.00015 0)
(0.00039 0.00015 0)
(0.00041 0.00015 0)
(1e-05 0.00017 0)
(3e-05 0.00017 0)
(5e-05 0.00017 0)
(7e-05 0.00017 0)
(9e-05 0.00017 0)
(0.00011 0.00017 0)
(0.00013 0.00017 0)
(0.00015 0.00017 0)
(0.00017 0.00017 0)
(0.00019 0.00017 0)
(0.00021 0.00017 0)
(0.00023 0.00017 0)
(0.00025 0.00017 0)
(0.00027 0.00017 0)
(0.00029 0.00017 0)
(0.00031 0.00017 0)
(0.00033 0.00017 0)
(0.00035 0.00017 0)
(0.00037 0.00017 0)
(0.00039 0.00017 0)
(0.00041 0.00017 0)
(1e-05 0.00019 0)
(3e-05 0.00019 0)
(5e-05 0.00019 0)
(7e-05 0.00019 0)
(9e-05 0.00019 0)
(0.00011 0.00019 0)
(0.00013 0.00019 0)
(0.00015 0.00019 0)
(0.00017 0.00019 0)
(0.00019 0.00019 0)
(0.00021 0.00019 0)
(0.00023 0.00019 0)
(0.00025 0.00019 0)
(0.00027 0.00019 0)
(0.00029 0.00019 0)
(0.00031 0.00019 0)
(0.00033 0.00019 0)
(0.00035 0.00019 0)
(0.00037 0.00019 0)
(0.00039 0.00019 0)
(0.00041 0.00019 0)
(1e-05 0.00021 0)
(3e-05 0.00021 0)
(5e-05 0.00021 0)
(7e-05 0.00021 0)
(9e-05 0.00021 0)
(0.00011 0.00021 0)
(0.00013 0.00021 0)
(0.00015 0.00021 0)
(0.00017 0.00021 0)
(0.00019 0.00021 0)
(0.00021 0.00021 0)
(0.00023 0.00021 0)
(0.00025 0.00021 0)
(0.00027 0.00021 0)
(0.00029 0.00021 0)
(0.00031 0.00021 0)
(0.00033 0.00021 0)
(0.00035 0.00021 0)
(0.00037 0.00021 0)
(0.00039 0.00021 0)
(0.00041 0.00021 0)
(1e-05 0.00023 0)
(3e-05 0.00023 0)
(5e-05 0.00023 0)
(7e-05 0.00023 0)
(9e-05 0.00023 0)
(0.00011 0.00023 0)
(0.00013 0.00023 0)
(0.00015 0.00023 0)
(0.00017 0.00023 0)
(0.00019 0.00023 0)
(0.00021 0.00023 0)
(0.00023 0.00023 0)
(0.00025 0.00023 0)
(0.00027 0.00023 0)
(0.00029 0.00023 0)
(0.00031 0.00023 0)
(0.00033 0.00023 0)
(0.00035 0.00023 0)
(0.00037 0.00023 0)
(0.00039 0.00023 0)
(0.00041 0.00023 0)
(1e-05 0.00025 0)
(3e-05 0.00025 0)
(5e-05 0.00025 0)
(7e-05 0.00025 0)
(9e-05 0.00025 0)
(0.00011 0.00025 0)
(0.00013 0.00025 0)
(0.00015 0.00025 0)
(0.00017 0.00025 0)
(0.00019 0.00025 0)
(0.00021 0.00025 0)
(0.00023 0.00025 0)
(0.00025 0.00025 0)
(0.00027 0.00025 0)
(0.00029 0.00025 0)
(0.00031 0.00025 0)
(0.00033 0.00025 0)
(0.00035 0.00025 0)
(0.00037 0.00025 0)
(0.00039 0.00025 0)
(0.00041 0.00025 0)
(1e-05 0.00027 0)
(3e-05 0.00027 0)
(5e-05 0.00027 0)
(7e-05 0.00027 0)
(9e-05 0.00027 0)
(0.00011 0.00027 0)
(0.00013 0.00027 0)
(0.00015 0.00027 0)
(0.00017 0.00027 0)
(0.00019 0.00027 0)
(0.00021 0.00027 0)
(0.00023 0.00027 0)
(0.00025 0.00027 0)
(0.00027 0.00027 0)
(0.00029 0.00027 0)
(0.00031 0.00027 0)
(0.00033 0.00027 0)
(0.00035 0.00027 0)
(0.00037 0.00027 0)
(0.00039 0.00027 0)
(0.00041 0.00027 0)
(1e-05 0.00029 0)
(3e-05 0.00029 0)
(5e-05 0.00029 0)
(7e-05 0.00029 0)
(9e-05 0.00029 0)
(0.00011 0.00029 0)
(0.00013 0.00029 0)
(0.00015 0.00029 0)
(0.00017 0.00029 0)
(0.00019 0.00029 0)
(0.00021 0.00029 0)
(0.00023 0.00029 0)
(0.00025 0.00029 0)
(0.00027 0.00029 0)
(0.00029 0.00029 0)
(0.00031 0.00029 0)
(0.00033 0.00029 0)
(0.00035 0.00029 0)
(0.00037 0.00029 0)
(0.00039 0.00029 0)
(0.00041 0.00029 0)
(1e-05 0.00031 0)
(3e-05 0.00031 0)
(5e-05 0.00031 0)
(7e-05 0.00031 0)
(9e-05 0.00031 0)
(0.00011 0.00031 0)
(0.00013 0.00031 0)
(0.00015 0.00031 0)
(0.00017 0.00031 0)
(0.00019 0.00031 0)
(0.00021 0.00031 0)
(0.00023 0.00031 0)
(0.00025 0.00031 0)
(0.00027 0.00031 0)
(0.00029 0.00031 0)
(0.00031 0.00031 0)
(0.00033 0.00031 0)
(0.00035 0.00031 0)
(0.00037 0.00031 0)
(0.00039 0.00031 0)
(0.00041 0.00031 0)
(1e-05 0.00033 0)
(3e-05 0.00033 0)
(5e-05 0.00033 0)
(7e-05 0.00033 0)
(9e-05 0.00033 0)
(0.00011 0.00033 0)
(0.00013 0.00033 0)
(0.00015 0.00033 0)
(0.00017 0.00033 0)
(0.00019 0.00033 0)
(0.00021 0.00033 0)
(0.00023 0.00033 0)
(0.00025 0.00033 0)
(0.00027 0.00033 0)
(0.00029 0.00033 0)
(0.00031 0.00033 0)
(0.00033 0.00033 0)
(0.00035 0.00033 0)
(0.00037 0.00033 0)
(0.00039 0.00033 0)
(0.00041 0.00033 0)
(1e-05 0.00035 0)
(3e-05 0.00035 0)
(5e-05 0.00035 0)
(7e-05 0.00035 0)
(9e-05 0.00035 0)
(0.00011 0.00035 0)
(0.00013 0.00035 0)
(0.00015 0.00035 0)
(0.00017 0.00035 0)
(0.00019 0.00035 0)
(0.00021 0.00035 0)
(0.00023 0.00035 0)
(0.00025 0.00035 0)
(0.00027 0.00035 0)
(0.00029 0.00035 0)
(0.00031 0.00035 0)
(0.00033 0.00035 0)
(0.00035 0.00035 0)
(0.00037 0.00035 0)
(0.00039 0.00035 0)
(0.00041 0.00035 0)
(1e-05 0.00037 0)
(3e-05 0.00037 0)
(5e-05 0.00037 0)
(7e-05 0.00037 0)
(9e-05 0.00037 0)
(0.00011 0.00037 0)
(0.00013 0.00037 0)
(0.00015 0.00037 0)
(0.00017 0.00037 0)
(0.00019 0.00037 0)
(0.00021 0.00037 0)
(0.00023 0.00037 0)
(0.00025 0.00037 0)
(0.00027 0.00037 0)
(0.00029 0.00037 0)
(0.00031 0.00037 0)
(0.00033 0.00037 0)
(0.00035 0.00037 0)
(0.00037 0.00037 0)
(0.00039 0.00037 0)
(0.00041 0.00037 0)
(1e-05 0.00039 0)
(3e-05 0.00039 0)
(5e-05 0.00039 0)
(7e-05 0.00039 0)
(9e-05 0.00039 0)
(0.00011 0.00039 0)
(0.00013 0.00039 0)
(0.00015 0.00039 0)
(0.00017 0.00039 0)
(0.00019 0.00039 0)
(0.00021 0.00039 0)
(0.00023 0.00039 0)
(0.00025 0.00039 0)
(0.00027 0.00039 0)
(0.00029 0.00039 0)
(0.00031 0.00039 0)
(0.00033 0.00039 0)
(0.00035 0.00039 0)
(0.00037 0.00039 0)
(0.00039 0.00039 0)
(0.00041 0.00039 0)
(1e-05 0.00041 0)
(3e-05 0.00041 0)
(5e-05 0.00041 0)
(7e-05 0.00041 0)
(9e-05 0.00041 0)
(0.00011 0.00041 0)
(0.00013 0.00041 0)
(0.00015 0.00041 0)
(0.00017 0.00041 0)
(0.00019 0.00041 0)
(0.00021 0.00041 0)
(0.00023 0.00041 0)
(0.00025 0.00041 0)
(0.00027 0.00041 0)
(0.00029 0.00041 0)
(0.00031 0.00041 0)
(0.00033 0.00041 0)
(0.00035 0.00041 0)
(0.00037 0.00041 0)
(0.00039 0.00041 0)
(0.00041 0.00041 0)
(1e-05 0.00043 0)
(3e-05 0.00043 0)
(5e-05 0.00043 0)
(7e-05 0.00043 0)
(9e-05 0.00043 0)
(0.00011 0.00043 0)
(0.00013 0.00043 0)
(0.00015 0.00043 0)
(0.00017 0.00043 0)
(0.00019 0.00043 0)
(0.00021 0.00043 0)
(0.00023 0.00043 0)
(0.00025 0.00043 0)
(0.00027 0.00043 0)
(0.00029 0.00043 0)
(0.00031 0.00043 0)
(0.00033 0.00043 0)
(0.00035 0.00043 0)
(0.00037 0.00043 0)
(0.00039 0.00043 0)
(0.00041 0.00043 0)
(1e-05 0.00045 0)
(3e-05 0.00045 0)
(5e-05 0.00045 0)
(7e-05 0.00045 0)
(9e-05 0.00045 0)
(0.00011 0.00045 0)
(0.00013 0.00045 0)
(0.00015 0.00045 0)
(0.00017 0.00045 0)
(0.00019 0.00045 0)
(0.00021 0.00045 0)
(0.00023 0.00045 0)
(0.00025 0.00045 0)
(0.00027 0.00045 0)
(0.00029 0.00045 0)
(0.00031 0.00045 0)
(0.00033 0.00045 0)
(0.00035 0.00045 0)
(0.00037 0.00045 0)
(0.00039 0.00045 0)
(0.00041 0.00045 0)
(1e-05 0.00047 0)
(3e-05 0.00047 0)
(5e-05 0.00047 0)
(7e-05 0.00047 0)
(9e-05 0.00047 0)
(0.00011 0.00047 0)
(0.00013 0.00047 0)
(0.00015 0.00047 0)
(0.00017 0.00047 0)
(0.00019 0.00047 0)
(0.00021 0.00047 0)
(0.00023 0.00047 0)
(0.00025 0.00047 0)
(0.00027 0.00047 0)
(0.00029 0.00047 0)
(0.00031 0.00047 0)
(0.00033 0.00047 0)
(0.00035 0.00047 0)
(0.00037 0.00047 0)
(0.00039 0.00047 0)
(0.00041 0.00047 0)
(1e-05 0.00049 0)
(3e-05 0.00049 0)
(5e-05 0.00049 0)
(7e-05 0.00049 0)
(9e-05 0.00049 0)
(0.00011 0.00049 0)
(0.00013 0.00049 0)
(0.00015 0.00049 0)
(0.00017 0.00049 0)
(0.00019 0.00049 0)
(0.00021 0.00049 0)
(0.00023 0.00049 0)
(0.00025 0.00049 0)
(0.00027 0.00049 0)
(0.00029 0.00049 0)
(0.00031 0.00049 0)
(0.00033 0.00049 0)
(0.00035 0.00049 0)
(0.00037 0.00049 0)
(0.00039 0.00049 0)
(0.00041 0.00049 0)
(1e-05 0.00051 0)
(3e-05 0.00051 0)
(5e-05 0.00051 0)
(7e-05 0.00051 0)
(9e-05 0.00051 0)
(0.00011 0.00051 0)
(0.00013 0.00051 0)
(0.00015 0.00051 0)
(0.00017 0.00051 0)
(0.00019 0.00051 0)
(0.00021 0.00051 0)
(0.00023 0.00051 0)
(0.00025 0.00051 0)
(0.00027 0.00051 0)
(0.00029 0.00051 0)
(0.00031 0.00051 0)
(0.00033 0.00051 0)
(0.00035 0.00051 0)
(0.00037 0.00051 0)
(0.00039 0.00051 0)
(0.00041 0.00051 0)
(1e-05 0.00053 0)
(3e-05 0.00053 0)
(5e-05 0.00053 0)
(7e-05 0.00053 0)
(9e-05 0.00053 0)
(0.00011 0.00053 0)
(0.00013 0.00053 0)
(0.00015 0.00053 0)
(0.00017 0.00053 0)
(0.00019 0.00053 0)
(0.00021 0.00053 0)
(0.00023 0.00053 0)
(0.00025 0.00053 0)
(0.00027 0.00053 0)
(0.00029 0.00053 0)
(0.00031 0.00053 0)
(0.00033 0.00053 0)
(0.00035 0.00053 0)
(0.00037 0.00053 0)
(0.00039 0.00053 0)
(0.00041 0.00053 0)
(1e-05 0.00055 0)
(3e-05 0.00055 0)
(5e-05 0.00055 0)
(7e-05 0.00055 0)
(9e-05 0.00055 0)
(0.00011 0.00055 0)
(0.00013 0.00055 0)
(0.00015 0.00055 0)
(0.00017 0.00055 0)
(0.00019 0.00055 0)
(0.00021 0.00055 0)
(0.00023 0.00055 0)
(0.00025 0.00055 0)
(0.00027 0.00055 0)
(0.00029 0.00055 0)
(0.00031 0.00055 0)
(0.00033 0.00055 0)
(0.00035 0.00055 0)
(0.00037 0.00055 0)
(0.00039 0.00055 0)
(0.00041 0.00055 0)
(1e-05 0.00057 0)
(3e-05 0.00057 0)
(5e-05 0.00057 0)
(7e-05 0.00057 0)
(9e-05 0.00057 0)
(0.00011 0.00057 0)
(0.00013 0.00057 0)
(0.00015 0.00057 0)
(0.00017 0.00057 0)
(0.00019 0.00057 0)
(0.00021 0.00057 0)
(0.00023 0.00057 0)
(0.00025 0.00057 0)
(0.00027 0.00057 0)
(0.00029 0.00057 0)
(0.00031 0.00057 0)
(0.00033 0.00057 0)
(0.00035 0.00057 0)
(0.00037 0.00057 0)
(0.00039 0.00057 0)
(0.00041 0.00057 0)
(1e-05 0.00059 0)
(3e-05 0.00059 0)
(5e-05 0.00059 0)
(7e-05 0.00059 0)
(9e-05 0.00059 0)
(0.00011 0.00059 0)
(0.00013 0.00059 0)
(0.00015 0.00059 0)
(0.00017 0.00059 0)
(0.00019 0.00059 0)
(0.00021 0.00059 0)
(0.00023 0.00059 0)
(0.00025 0.00059 0)
(0.00027 0.00059 0)
(0.00029 0.00059 0)
(0.00031 0.00059 0)
(0.00033 0.00059 0)
(0.00035 0.00059 0)
(0.00037 0.00059 0)
(0.00039 0.00059 0)
(0.00041 0.00059 0)
(1e-05 0.00061 0)
(3e-05 0.00061 0)
(5e-05 0.00061 0)
(7e-05 0.00061 0)
(9e-05 0.00061 0)
(0.00011 0.00061 0)
(0.00013 0.00061 0)
(0.00015 0.00061 0)
(0.00017 0.00061 0)
(0.00019 0.00061 0)
(0.00021 0.00061 0)
(0.00023 0.00061 0)
(0.00025 0.00061 0)
(0.00027 0.00061 0)
(0.00029 0.00061 0)
(0.00031 0.00061 0)
(0.00033 0.00061 0)
(0.00035 0.00061 0)
(0.00037 0.00061 0)
(0.00039 0.00061 0)
(0.00041 0.00061 0)
(1e-05 0.00063 0)
(3e-05 0.00063 0)
(5e-05 0.00063 0)
(7e-05 0.00063 0)
(9e-05 0.00063 0)
(0.00011 0.00063 0)
(0.00013 0.00063 0)
(0.00015 0.00063 0)
(0.00017 0.00063 0)
(0.00019 0.00063 0)
(0.00021 0.00063 0)
(0.00023 0.00063 0)
(0.00025 0.00063 0)
(0.00027 0.00063 0)
(0.00029 0.00063 0)
(0.00031 0.00063 0)
(0.00033 0.00063 0)
(0.00035 0.00063 0)
(0.00037 0.00063 0)
(0.00039 0.00063 0)
(0.00041 0.00063 0)
(1e-05 0.00065 0)
(3e-05 0.00065 0)
(5e-05 0.00065 0)
(7e-05 0.00065 0)
(9e-05 0.00065 0)
(0.00011 0.00065 0)
(0.00013 0.00065 0)
(0.00015 0.00065 0)
(0.00017 0.00065 0)
(0.00019 0.00065 0)
(0.00021 0.00065 0)
(0.00023 0.00065 0)
(0.00025 0.00065 0)
(0.00027 0.00065 0)
(0.00029 0.00065 0)
(0.00031 0.00065 0)
(0.00033 0.00065 0)
(0.00035 0.00065 0)
(0.00037 0.00065 0)
(0.00039 0.00065 0)
(0.00041 0.00065 0)
(1e-05 0.00067 0)
(3e-05 0.00067 0)
(5e-05 0.00067 0)
(7e-05 0.00067 0)
(9e-05 0.00067 0)
(0.00011 0.00067 0)
(0.00013 0.00067 0)
(0.00015 0.00067 0)
(0.00017 0.00067 0)
(0.00019 0.00067 0)
(0.00021 0.00067 0)
(0.00023 0.00067 0)
(0.00025 0.00067 0)
(0.00027 0.00067 0)
(0.00029 0.00067 0)
(0.00031 0.00067 0)
(0.00033 0.00067 0)
(0.00035 0.00067 0)
(0.00037 0.00067 0)
(0.00039 0.00067 0)
(0.00041 0.00067 0)
(1e-05 0.00069 0)
(3e-05 0.00069 0)
(5e-05 0.00069 0)
(7e-05 0.00069 0)
(9e-05 0.00069 0)
(0.00011 0.00069 0)
(0.00013 0.00069 0)
(0.00015 0.00069 0)
(0.00017 0.00069 0)
(0.00019 0.00069 0)
(0.00021 0.00069 0)
(0.00023 0.00069 0)
(0.00025 0.00069 0)
(0.00027 0.00069 0)
(0.00029 0.00069 0)
(0.00031 0.00069 0)
(0.00033 0.00069 0)
(0.00035 0.00069 0)
(0.00037 0.00069 0)
(0.00039 0.00069 0)
(0.00041 0.00069 0)
(1e-05 0.00071 0)
(3e-05 0.00071 0)
(5e-05 0.00071 0)
(7e-05 0.00071 0)
(9e-05 0.00071 0)
(0.00011 0.00071 0)
(0.00013 0.00071 0)
(0.00015 0.00071 0)
(0.00017 0.00071 0)
(0.00019 0.00071 0)
(0.00021 0.00071 0)
(0.00023 0.00071 0)
(0.00025 0.00071 0)
(0.00027 0.00071 0)
(0.00029 0.00071 0)
(0.00031 0.00071 0)
(0.00033 0.00071 0)
(0.00035 0.00071 0)
(0.00037 0.00071 0)
(0.00039 0.00071 0)
(0.00041 0.00071 0)
(1e-05 0.00073 0)
(3e-05 0.00073 0)
(5e-05 0.00073 0)
(7e-05 0.00073 0)
(9e-05 0.00073 0)
(0.00011 0.00073 0)
(0.00013 0.00073 0)
(0.00015 0.00073 0)
(0.00017 0.00073 0)
(0.00019 0.00073 0)
(0.00021 0.00073 0)
(0.00023 0.00073 0)
(0.00025 0.00073 0)
(0.00027 0.00073 0)
(0.00029 0.00073 0)
(0.00031 0.00073 0)
(0.00033 0.00073 0)
(0.00035 0.00073 0)
(0.00037 0.00073 0)
(0.00039 0.00073 0)
(0.00041 0.00073 0)
(1e-05 0.00075 0)
(3e-05 0.00075 0)
(5e-05 0.00075 0)
(7e-05 0.00075 0)
(9e-05 0.00075 0)
(0.00011 0.00075 0)
(0.00013 0.00075 0)
(0.00015 0.00075 0)
(0.00017 0.00075 0)
(0.00019 0.00075 0)
(0.00021 0.00075 0)
(0.00023 0.00075 0)
(0.00025 0.00075 0)
(0.00027 0.00075 0)
(0.00029 0.00075 0)
(0.00031 0.00075 0)
(0.00033 0.00075 0)
(0.00035 0.00075 0)
(0.00037 0.00075 0)
(0.00039 0.00075 0)
(0.00041 0.00075 0)
(1e-05 0.00077 0)
(3e-05 0.00077 0)
(5e-05 0.00077 0)
(7e-05 0.00077 0)
(9e-05 0.00077 0)
(0.00011 0.00077 0)
(0.00013 0.00077 0)
(0.00015 0.00077 0)
(0.00017 0.00077 0)
(0.00019 0.00077 0)
(0.00021 0.00077 0)
(0.00023 0.00077 0)
(0.00025 0.00077 0)
(0.00027 0.00077 0)
(0.00029 0.00077 0)
(0.00031 0.00077 0)
(0.00033 0.00077 0)
(0.00035 0.00077 0)
(0.00037 0.00077 0)
(0.00039 0.00077 0)
(0.00041 0.00077 0)
(1e-05 0.00079 0)
(3e-05 0.00079 0)
(5e-05 0.00079 0)
(7e-05 0.00079 0)
(9e-05 0.00079 0)
(0.00011 0.00079 0)
(0.00013 0.00079 0)
(0.00015 0.00079 0)
(0.00017 0.00079 0)
(0.00019 0.00079 0)
(0.00021 0.00079 0)
(0.00023 0.00079 0)
(0.00025 0.00079 0)
(0.00027 0.00079 0)
(0.00029 0.00079 0)
(0.00031 0.00079 0)
(0.00033 0.00079 0)
(0.00035 0.00079 0)
(0.00037 0.00079 0)
(0.00039 0.00079 0)
(0.00041 0.00079 0)
(1e-05 0.00081 0)
(3e-05 0.00081 0)
(5e-05 0.00081 0)
(7e-05 0.00081 0)
(9e-05 0.00081 0)
(0.00011 0.00081 0)
(0.00013 0.00081 0)
(0.00015 0.00081 0)
(0.00017 0.00081 0)
(0.00019 0.00081 0)
(0.00021 0.00081 0)
(0.00023 0.00081 0)
(0.00025 0.00081 0)
(0.00027 0.00081 0)
(0.00029 0.00081 0)
(0.00031 0.00081 0)
(0.00033 0.00081 0)
(0.00035 0.00081 0)
(0.00037 0.00081 0)
(0.00039 0.00081 0)
(0.00041 0.00081 0)
)

// ************************************************************************* //
